openpy_fx_tools_dss/Examples/123Bus/xlsx_files/DSS_files_from_xlsx/Line_123BusIEEE.dss
New "Line.l115" bus1=149.1.2.3.0 bus2=1.1.2.3.0 linecode=1 length=0.4 phases=3 Seasons=1 Ratings=[400.0] normamps=400 emergamps=600 
New "Line.l1" bus1=1.2 bus2=2.2 linecode=10 length=0.175 phases=1 Seasons=1 Ratings=[400.0] normamps=400 emergamps=600 
New "Line.l2" bus1=1.3 bus2=3.3 linecode=11 length=0.25 phases=1 Seasons=1 Ratings=[400.0] normamps=400 emergamps=600 
New "Line.l3" bus1=1.1.2.3 bus2=7.1.2.3 linecode=1 length=0.3 phases=3 Seasons=1 Ratings=[400.0] normamps=400 emergamps=600 
New "Line.l4" bus1=3.3 bus2=4.3 linecode=11 length=0.2 phases=1 Seasons=1 Ratings=[400.0] normamps=400 emergamps=600 
New "Line.l5" bus1=3.3 bus2=5.3 linecode=11 length=0.325 phases=1 Seasons=1 Ratings=[400.0] normamps=400 emergamps=600 
New "Line.l6" bus1=5.3 bus2=6.3 linecode=11 length=0.25 phases=1 Seasons=1 Ratings=[400.0] normamps=400 emergamps=600 
New "Line.l7" bus1=7.1.2.3 bus2=8.1.2.3 linecode=1 length=0.2 phases=3 Seasons=1 Ratings=[400.0] normamps=400 emergamps=600 
New "Line.l8" bus1=8.2 bus2=12.2 linecode=10 length=0.225 phases=1 Seasons=1 Ratings=[400.0] normamps=400 emergamps=600 
New "Line.l9" bus1=8.1 bus2=9.1 linecode=9 length=0.225 phases=1 Seasons=1 Ratings=[400.0] normamps=400 emergamps=600 
New "Line.l10" bus1=8.1.2.3 bus2=13.1.2.3 linecode=1 length=0.3 phases=3 Seasons=1 Ratings=[400.0] normamps=400 emergamps=600 
New "Line.l11" bus1=9r.1 bus2=14.1 linecode=9 length=0.425 phases=1 Seasons=1 Ratings=[400.0] normamps=400 emergamps=600 
New "Line.l12" bus1=13.3 bus2=34.3 linecode=11 length=0.15 phases=1 Seasons=1 Ratings=[400.0] normamps=400 emergamps=600 
New "Line.l13" bus1=13.1.2.3 bus2=18.1.2.3 linecode=2 length=0.825 phases=3 Seasons=1 Ratings=[400.0] normamps=400 emergamps=600 
New "Line.l14" bus1=14.1 bus2=11.1 linecode=9 length=0.25 phases=1 Seasons=1 Ratings=[400.0] normamps=400 emergamps=600 
New "Line.l15" bus1=14.1 bus2=10.1 linecode=9 length=0.25 phases=1 Seasons=1 Ratings=[400.0] normamps=400 emergamps=600 
New "Line.l16" bus1=15.3 bus2=16.3 linecode=11 length=0.375 phases=1 Seasons=1 Ratings=[400.0] normamps=400 emergamps=600 
New "Line.l17" bus1=15.3 bus2=17.3 linecode=11 length=0.35 phases=1 Seasons=1 Ratings=[400.0] normamps=400 emergamps=600 
New "Line.l18" bus1=18.1 bus2=19.1 linecode=9 length=0.25 phases=1 Seasons=1 Ratings=[400.0] normamps=400 emergamps=600 
New "Line.l19" bus1=18.1.2.3 bus2=21.1.2.3 linecode=2 length=0.3 phases=3 Seasons=1 Ratings=[400.0] normamps=400 emergamps=600 
New "Line.l20" bus1=19.1 bus2=20.1 linecode=9 length=0.325 phases=1 Seasons=1 Ratings=[400.0] normamps=400 emergamps=600 
New "Line.l21" bus1=21.2 bus2=22.2 linecode=10 length=0.525 phases=1 Seasons=1 Ratings=[400.0] normamps=400 emergamps=600 
New "Line.l22" bus1=21.1.2.3 bus2=23.1.2.3 linecode=2 length=0.25 phases=3 Seasons=1 Ratings=[400.0] normamps=400 emergamps=600 
New "Line.l23" bus1=23.3 bus2=24.3 linecode=11 length=0.55 phases=1 Seasons=1 Ratings=[400.0] normamps=400 emergamps=600 
New "Line.l24" bus1=23.1.2.3 bus2=25.1.2.3 linecode=2 length=0.275 phases=3 Seasons=1 Ratings=[400.0] normamps=400 emergamps=600 
New "Line.l25" bus1=25r.1.3 bus2=26.1.3 linecode=7 length=0.35 phases=2 Seasons=1 Ratings=[400.0] normamps=400 emergamps=600 
New "Line.l26" bus1=25.1.2.3 bus2=28.1.2.3 linecode=2 length=0.2 phases=3 Seasons=1 Ratings=[400.0] normamps=400 emergamps=600 
New "Line.l27" bus1=26.1.3 bus2=27.1.3 linecode=7 length=0.275 phases=2 Seasons=1 Ratings=[400.0] normamps=400 emergamps=600 
New "Line.l28" bus1=26.3 bus2=31.3 linecode=11 length=0.225 phases=1 Seasons=1 Ratings=[400.0] normamps=400 emergamps=600 
New "Line.l29" bus1=27.1 bus2=33.1 linecode=9 length=0.5 phases=1 Seasons=1 Ratings=[400.0] normamps=400 emergamps=600 
New "Line.l30" bus1=28.1.2.3 bus2=29.1.2.3 linecode=2 length=0.3 phases=3 Seasons=1 Ratings=[400.0] normamps=400 emergamps=600 
New "Line.l31" bus1=29.1.2.3 bus2=30.1.2.3 linecode=2 length=0.35 phases=3 Seasons=1 Ratings=[400.0] normamps=400 emergamps=600 
New "Line.l32" bus1=30.1.2.3 bus2=250.1.2.3 linecode=2 length=0.2 phases=3 Seasons=1 Ratings=[400.0] normamps=400 emergamps=600 
New "Line.l33" bus1=31.3 bus2=32.3 linecode=11 length=0.3 phases=1 Seasons=1 Ratings=[400.0] normamps=400 emergamps=600 
New "Line.l34" bus1=34.3 bus2=15.3 linecode=11 length=0.1 phases=1 Seasons=1 Ratings=[400.0] normamps=400 emergamps=600 
New "Line.l35" bus1=35.1.2 bus2=36.1.2 linecode=8 length=0.65 phases=2 Seasons=1 Ratings=[400.0] normamps=400 emergamps=600 
New "Line.l36" bus1=35.1.2.3 bus2=40.1.2.3 linecode=1 length=0.25 phases=3 Seasons=1 Ratings=[400.0] normamps=400 emergamps=600 
New "Line.l37" bus1=36.1 bus2=37.1 linecode=9 length=0.3 phases=1 Seasons=1 Ratings=[400.0] normamps=400 emergamps=600 
New "Line.l38" bus1=36.2 bus2=38.2 linecode=10 length=0.25 phases=1 Seasons=1 Ratings=[400.0] normamps=400 emergamps=600 
New "Line.l39" bus1=38.2 bus2=39.2 linecode=10 length=0.325 phases=1 Seasons=1 Ratings=[400.0] normamps=400 emergamps=600 
New "Line.l40" bus1=40.3 bus2=41.3 linecode=11 length=0.325 phases=1 Seasons=1 Ratings=[400.0] normamps=400 emergamps=600 
New "Line.l41" bus1=40.1.2.3 bus2=42.1.2.3 linecode=1 length=0.25 phases=3 Seasons=1 Ratings=[400.0] normamps=400 emergamps=600 
New "Line.l42" bus1=42.2 bus2=43.2 linecode=10 length=0.5 phases=1 Seasons=1 Ratings=[400.0] normamps=400 emergamps=600 
New "Line.l43" bus1=42.1.2.3 bus2=44.1.2.3 linecode=1 length=0.2 phases=3 Seasons=1 Ratings=[400.0] normamps=400 emergamps=600 
New "Line.l44" bus1=44.1 bus2=45.1 linecode=9 length=0.2 phases=1 Seasons=1 Ratings=[400.0] normamps=400 emergamps=600 
New "Line.l45" bus1=44.1.2.3 bus2=47.1.2.3 linecode=1 length=0.25 phases=3 Seasons=1 Ratings=[400.0] normamps=400 emergamps=600 
New "Line.l46" bus1=45.1 bus2=46.1 linecode=9 length=0.3 phases=1 Seasons=1 Ratings=[400.0] normamps=400 emergamps=600 
New "Line.l47" bus1=47.1.2.3 bus2=48.1.2.3 linecode=4 length=0.15 phases=3 Seasons=1 Ratings=[400.0] normamps=400 emergamps=600 
New "Line.l48" bus1=47.1.2.3 bus2=49.1.2.3 linecode=4 length=0.25 phases=3 Seasons=1 Ratings=[400.0] normamps=400 emergamps=600 
New "Line.l49" bus1=49.1.2.3 bus2=50.1.2.3 linecode=4 length=0.25 phases=3 Seasons=1 Ratings=[400.0] normamps=400 emergamps=600 
New "Line.l50" bus1=50.1.2.3 bus2=51.1.2.3 linecode=4 length=0.25 phases=3 Seasons=1 Ratings=[400.0] normamps=400 emergamps=600 
New "Line.l51" bus1=51.1.2.3 bus2=151.1.2.3 linecode=4 length=0.5 phases=3 Seasons=1 Ratings=[400.0] normamps=400 emergamps=600 
New "Line.l52" bus1=52.1.2.3 bus2=53.1.2.3 linecode=1 length=0.2 phases=3 Seasons=1 Ratings=[400.0] normamps=400 emergamps=600 
New "Line.l53" bus1=53.1.2.3 bus2=54.1.2.3 linecode=1 length=0.125 phases=3 Seasons=1 Ratings=[400.0] normamps=400 emergamps=600 
New "Line.l54" bus1=54.1.2.3 bus2=55.1.2.3 linecode=1 length=0.275 phases=3 Seasons=1 Ratings=[400.0] normamps=400 emergamps=600 
New "Line.l55" bus1=54.1.2.3 bus2=57.1.2.3 linecode=3 length=0.35 phases=3 Seasons=1 Ratings=[400.0] normamps=400 emergamps=600 
New "Line.l56" bus1=55.1.2.3 bus2=56.1.2.3 linecode=1 length=0.275 phases=3 Seasons=1 Ratings=[400.0] normamps=400 emergamps=600 
New "Line.l57" bus1=57.2 bus2=58.2 linecode=10 length=0.25 phases=1 Seasons=1 Ratings=[400.0] normamps=400 emergamps=600 
New "Line.l58" bus1=57.1.2.3 bus2=60.1.2.3 linecode=3 length=0.75 phases=3 Seasons=1 Ratings=[400.0] normamps=400 emergamps=600 
New "Line.l59" bus1=58.2 bus2=59.2 linecode=10 length=0.25 phases=1 Seasons=1 Ratings=[400.0] normamps=400 emergamps=600 
New "Line.l60" bus1=60.1.2.3 bus2=61.1.2.3 linecode=5 length=0.55 phases=3 Seasons=1 Ratings=[400.0] normamps=400 emergamps=600 
New "Line.l61" bus1=60.1.2.3 bus2=62.1.2.3 linecode=12 length=0.25 phases=3 Seasons=1 Ratings=[400.0] normamps=400 emergamps=600 
New "Line.l62" bus1=62.1.2.3 bus2=63.1.2.3 linecode=12 length=0.175 phases=3 Seasons=1 Ratings=[400.0] normamps=400 emergamps=600 
New "Line.l63" bus1=63.1.2.3 bus2=64.1.2.3 linecode=12 length=0.35 phases=3 Seasons=1 Ratings=[400.0] normamps=400 emergamps=600 
New "Line.l64" bus1=64.1.2.3 bus2=65.1.2.3 linecode=12 length=0.425 phases=3 Seasons=1 Ratings=[400.0] normamps=400 emergamps=600 
New "Line.l65" bus1=65.1.2.3 bus2=66.1.2.3 linecode=12 length=0.325 phases=3 Seasons=1 Ratings=[400.0] normamps=400 emergamps=600 
New "Line.l66" bus1=67.1 bus2=68.1 linecode=9 length=0.2 phases=1 Seasons=1 Ratings=[400.0] normamps=400 emergamps=600 
New "Line.l67" bus1=67.1.2.3 bus2=72.1.2.3 linecode=3 length=0.275 phases=3 Seasons=1 Ratings=[400.0] normamps=400 emergamps=600 
New "Line.l68" bus1=67.1.2.3 bus2=97.1.2.3 linecode=3 length=0.25 phases=3 Seasons=1 Ratings=[400.0] normamps=400 emergamps=600 
New "Line.l69" bus1=68.1 bus2=69.1 linecode=9 length=0.275 phases=1 Seasons=1 Ratings=[400.0] normamps=400 emergamps=600 
New "Line.l70" bus1=69.1 bus2=70.1 linecode=9 length=0.325 phases=1 Seasons=1 Ratings=[400.0] normamps=400 emergamps=600 
New "Line.l71" bus1=70.1 bus2=71.1 linecode=9 length=0.275 phases=1 Seasons=1 Ratings=[400.0] normamps=400 emergamps=600 
New "Line.l72" bus1=72.3 bus2=73.3 linecode=11 length=0.275 phases=1 Seasons=1 Ratings=[400.0] normamps=400 emergamps=600 
New "Line.l73" bus1=72.1.2.3 bus2=76.1.2.3 linecode=3 length=0.2 phases=3 Seasons=1 Ratings=[400.0] normamps=400 emergamps=600 
New "Line.l74" bus1=73.3 bus2=74.3 linecode=11 length=0.35 phases=1 Seasons=1 Ratings=[400.0] normamps=400 emergamps=600 
New "Line.l75" bus1=74.3 bus2=75.3 linecode=11 length=0.4 phases=1 Seasons=1 Ratings=[400.0] normamps=400 emergamps=600 
New "Line.l76" bus1=76.1.2.3 bus2=77.1.2.3 linecode=6 length=0.4 phases=3 Seasons=1 Ratings=[400.0] normamps=400 emergamps=600 
New "Line.l77" bus1=76.1.2.3 bus2=86.1.2.3 linecode=3 length=0.7 phases=3 Seasons=1 Ratings=[400.0] normamps=400 emergamps=600 
New "Line.l78" bus1=77.1.2.3 bus2=78.1.2.3 linecode=6 length=0.1 phases=3 Seasons=1 Ratings=[400.0] normamps=400 emergamps=600 
New "Line.l79" bus1=78.1.2.3 bus2=79.1.2.3 linecode=6 length=0.225 phases=3 Seasons=1 Ratings=[400.0] normamps=400 emergamps=600 
New "Line.l80" bus1=78.1.2.3 bus2=80.1.2.3 linecode=6 length=0.475 phases=3 Seasons=1 Ratings=[400.0] normamps=400 emergamps=600 
New "Line.l81" bus1=80.1.2.3 bus2=81.1.2.3 linecode=6 length=0.175 phases=3 Seasons=1 Ratings=[400.0] normamps=400 emergamps=600 
New "Line.l82" bus1=81.1.2.3 bus2=82.1.2.3 linecode=6 length=0.25 phases=3 Seasons=1 Ratings=[400.0] normamps=400 emergamps=600 
New "Line.l83" bus1=81.3 bus2=84.3 linecode=11 length=0.675 phases=1 Seasons=1 Ratings=[400.0] normamps=400 emergamps=600 
New "Line.l84" bus1=82.1.2.3 bus2=83.1.2.3 linecode=6 length=0.25 phases=3 Seasons=1 Ratings=[400.0] normamps=400 emergamps=600 
New "Line.l85" bus1=84.3 bus2=85.3 linecode=11 length=0.475 phases=1 Seasons=1 Ratings=[400.0] normamps=400 emergamps=600 
New "Line.l86" bus1=86.1.2.3 bus2=87.1.2.3 linecode=6 length=0.45 phases=3 Seasons=1 Ratings=[400.0] normamps=400 emergamps=600 
New "Line.l87" bus1=87.1 bus2=88.1 linecode=9 length=0.175 phases=1 Seasons=1 Ratings=[400.0] normamps=400 emergamps=600 
New "Line.l88" bus1=87.1.2.3 bus2=89.1.2.3 linecode=6 length=0.275 phases=3 Seasons=1 Ratings=[400.0] normamps=400 emergamps=600 
New "Line.l89" bus1=89.2 bus2=90.2 linecode=10 length=0.25 phases=1 Seasons=1 Ratings=[400.0] normamps=400 emergamps=600 
New "Line.l90" bus1=89.1.2.3 bus2=91.1.2.3 linecode=6 length=0.225 phases=3 Seasons=1 Ratings=[400.0] normamps=400 emergamps=600 
New "Line.l91" bus1=91.3 bus2=92.3 linecode=11 length=0.3 phases=1 Seasons=1 Ratings=[400.0] normamps=400 emergamps=600 
New "Line.l92" bus1=91.1.2.3 bus2=93.1.2.3 linecode=6 length=0.225 phases=3 Seasons=1 Ratings=[400.0] normamps=400 emergamps=600 
New "Line.l93" bus1=93.1 bus2=94.1 linecode=9 length=0.275 phases=1 Seasons=1 Ratings=[400.0] normamps=400 emergamps=600 
New "Line.l94" bus1=93.1.2.3 bus2=95.1.2.3 linecode=6 length=0.3 phases=3 Seasons=1 Ratings=[400.0] normamps=400 emergamps=600 
New "Line.l95" bus1=95.2 bus2=96.2 linecode=10 length=0.2 phases=1 Seasons=1 Ratings=[400.0] normamps=400 emergamps=600 
New "Line.l96" bus1=97.1.2.3 bus2=98.1.2.3 linecode=3 length=0.275 phases=3 Seasons=1 Ratings=[400.0] normamps=400 emergamps=600 
New "Line.l97" bus1=98.1.2.3 bus2=99.1.2.3 linecode=3 length=0.55 phases=3 Seasons=1 Ratings=[400.0] normamps=400 emergamps=600 
New "Line.l98" bus1=99.1.2.3 bus2=100.1.2.3 linecode=3 length=0.3 phases=3 Seasons=1 Ratings=[400.0] normamps=400 emergamps=600 
New "Line.l99" bus1=100.1.2.3 bus2=450.1.2.3 linecode=3 length=0.8 phases=3 Seasons=1 Ratings=[400.0] normamps=400 emergamps=600 
New "Line.l118" bus1=197.1.2.3 bus2=101.1.2.3 linecode=3 length=0.25 phases=3 Seasons=1 Ratings=[400.0] normamps=400 emergamps=600 
New "Line.l100" bus1=101.3 bus2=102.3 linecode=11 length=0.225 phases=1 Seasons=1 Ratings=[400.0] normamps=400 emergamps=600 
New "Line.l101" bus1=101.1.2.3 bus2=105.1.2.3 linecode=3 length=0.275 phases=3 Seasons=1 Ratings=[400.0] normamps=400 emergamps=600 
New "Line.l102" bus1=102.3 bus2=103.3 linecode=11 length=0.325 phases=1 Seasons=1 Ratings=[400.0] normamps=400 emergamps=600 
New "Line.l103" bus1=103.3 bus2=104.3 linecode=11 length=0.7 phases=1 Seasons=1 Ratings=[400.0] normamps=400 emergamps=600 
New "Line.l104" bus1=105.2 bus2=106.2 linecode=10 length=0.225 phases=1 Seasons=1 Ratings=[400.0] normamps=400 emergamps=600 
New "Line.l105" bus1=105.1.2.3 bus2=108.1.2.3 linecode=3 length=0.325 phases=3 Seasons=1 Ratings=[400.0] normamps=400 emergamps=600 
New "Line.l106" bus1=106.2 bus2=107.2 linecode=10 length=0.575 phases=1 Seasons=1 Ratings=[400.0] normamps=400 emergamps=600 
New "Line.l107" bus1=108.1 bus2=109.1 linecode=9 length=0.45 phases=1 Seasons=1 Ratings=[400.0] normamps=400 emergamps=600 
New "Line.l108" bus1=108.1.2.3 bus2=300.1.2.3 linecode=3 phases=3 Seasons=1 Ratings=[400.0] normamps=400 emergamps=600 
New "Line.l109" bus1=109.1 bus2=110.1 linecode=9 length=0.3 phases=1 Seasons=1 Ratings=[400.0] normamps=400 emergamps=600 
New "Line.l110" bus1=110.1 bus2=111.1 linecode=9 length=0.575 phases=1 Seasons=1 Ratings=[400.0] normamps=400 emergamps=600 
New "Line.l111" bus1=110.1 bus2=112.1 linecode=9 length=0.125 phases=1 Seasons=1 Ratings=[400.0] normamps=400 emergamps=600 
New "Line.l112" bus1=112.1 bus2=113.1 linecode=9 length=0.525 phases=1 Seasons=1 Ratings=[400.0] normamps=400 emergamps=600 
New "Line.l113" bus1=113.1 bus2=114.1 linecode=9 length=0.325 phases=1 Seasons=1 Ratings=[400.0] normamps=400 emergamps=600 
New "Line.l114" bus1=135.1.2.3 bus2=35.1.2.3 linecode=4 length=0.375 phases=3 Seasons=1 Ratings=[400.0] normamps=400 emergamps=600 
New "Line.l116" bus1=152.1.2.3 bus2=52.1.2.3 linecode=1 length=0.4 phases=3 Seasons=1 Ratings=[400.0] normamps=400 emergamps=600 
New "Line.l117" bus1=160r.1.2.3 bus2=67.1.2.3 linecode=6 length=0.35 phases=3 Seasons=1 Ratings=[400.0] normamps=400 emergamps=600 
New "Line.sw1" bus1=150r bus2=149.1.2.3.0 length=0.001 phases=3 r1=0.001 r0=0.001 rmatrix=[0.001 |0 0.001 |0 0 0.001] xmatrix=[0 |0 0 |0 0 0] cmatrix=[0 |0 0 |0 0 0] Seasons=1 Ratings=[400.0] normamps=400 emergamps=600 
New "Line.sw2" bus1=13.1.2.3.0 bus2=152.1.2.3.0 length=0.001 phases=3 r1=0.001 r0=0.001 rmatrix=[0.001 |0 0.001 |0 0 0.001] xmatrix=[0 |0 0 |0 0 0] cmatrix=[0 |0 0 |0 0 0] Seasons=1 Ratings=[400.0] normamps=400 emergamps=600 
New "Line.sw3" bus1=18.1.2.3.0 bus2=135.1.2.3.0 length=0.001 phases=3 r1=0.001 r0=0.001 rmatrix=[0.001 |0 0.001 |0 0 0.001] xmatrix=[0 |0 0 |0 0 0] cmatrix=[0 |0 0 |0 0 0] Seasons=1 Ratings=[400.0] normamps=400 emergamps=600 
New "Line.sw4" bus1=60.1.2.3.0 bus2=160.1.2.3.0 length=0.001 phases=3 r1=0.001 r0=0.001 rmatrix=[0.001 |0 0.001 |0 0 0.001] xmatrix=[0 |0 0 |0 0 0] cmatrix=[0 |0 0 |0 0 0] Seasons=1 Ratings=[400.0] normamps=400 emergamps=600 
New "Line.sw5" bus1=97.1.2.3.0 bus2=197.1.2.3.0 length=0.001 phases=3 r1=0.001 r0=0.001 rmatrix=[0.001 |0 0.001 |0 0 0.001] xmatrix=[0 |0 0 |0 0 0] cmatrix=[0 |0 0 |0 0 0] Seasons=1 Ratings=[400.0] normamps=400 emergamps=600 
New "Line.sw6" bus1=61.1.2.3.0 bus2=61s length=0.001 phases=3 r1=0.001 r0=0.001 rmatrix=[0.001 |0 0.001 |0 0 0.001] xmatrix=[0 |0 0 |0 0 0] cmatrix=[0 |0 0 |0 0 0] Seasons=1 Ratings=[400.0] normamps=400 emergamps=600 
New "Line.sw7" bus1=151.1.2.3.0 bus2=300_open length=0.001 phases=3 r1=0.001 r0=0.001 rmatrix=[0.001 |0 0.001 |0 0 0.001] xmatrix=[0 |0 0 |0 0 0] cmatrix=[0 |0 0 |0 0 0] Seasons=1 Ratings=[400.0] normamps=400 emergamps=600 
New "Line.sw8" bus1=54.1 bus2=94_open.1 length=0.001 phases=1 r1=0.001 r0=0.001 rmatrix=[0.001] Seasons=1 Ratings=[400.0] normamps=400 emergamps=600 
