openpy_fx_tools_dss/Examples/123Bus/xlsx_files/DSS_files_from_xlsx/123BusIEEE_VLN_Node.Txt

LINE-GROUND and LINE-LINE VOLTAGES BY BUS & NODE

Bus      Node    VLN (kV)   Angle      pu     Base kV    Node-Node   VLL (kV)  Angle      pu

150 .... 1       2.4017 /_    0.0   0.99998     4.160        1-2     4.1599 /_   30.0   0.99999
   -     2       2.4018 /_ -120.0   0.99999     4.160        2-3       4.16 /_  -90.0   0.99999
   -     3       2.4017 /_  120.0   0.99999     4.160        3-1     4.1599 /_  150.0   0.99999
149 .... 1       2.4918 /_    0.0    1.0375     4.160        1-2     4.3159 /_   30.0    1.0375
   -     2       2.4918 /_ -120.0    1.0375     4.160        2-3     4.3159 /_  -90.0    1.0375
   -     3       2.4918 /_  120.0    1.0375     4.160        3-1     4.3159 /_  150.0    1.0375
1 ...... 1       2.4617 /_   -0.7    1.0249     4.160        1-2     4.2777 /_   29.7    1.0283
   -     2       2.4861 /_ -120.3    1.0351     4.160        2-3     4.2939 /_  -90.5    1.0322
   -     3       2.4704 /_  119.6    1.0286     4.160        3-1     4.2771 /_  149.4    1.0281
2 ...... 2       2.4856 /_ -120.3    1.0349     4.160
3 ...... 3       2.4664 /_  119.6    1.0269     4.160
7 ...... 1       2.4393 /_   -1.1    1.0156     4.160        1-2     4.2501 /_   29.4    1.0217
   -     2       2.4821 /_ -120.6    1.0334     4.160        2-3     4.2784 /_  -90.8    1.0285
   -     3       2.4566 /_  119.4    1.0228     4.160        3-1     4.2505 /_  149.0    1.0218
4 ...... 3       2.4652 /_  119.6    1.0264     4.160
5 ...... 3       2.4633 /_  119.6    1.0256     4.160
6 ...... 3       2.4617 /_  119.5    1.0249     4.160
8 ...... 1       2.4247 /_   -1.4    1.0096     4.160        1-2     4.2319 /_   29.3    1.0173
   -     2       2.4792 /_ -120.7    1.0323     4.160        2-3     4.2682 /_  -91.0     1.026
   -     3       2.4475 /_  119.2    1.0191     4.160        3-1      4.233 /_  148.7    1.0175
12 ..... 2       2.4786 /_ -120.7     1.032     4.160
9 ...... 1       2.4212 /_   -1.5    1.0081     4.160
13 ..... 1       2.4055 /_   -1.9    1.0015     4.160        1-2     4.2066 /_   29.0    1.0112
   -     2       2.4741 /_ -121.0    1.0301     4.160        2-3      4.253 /_  -91.3    1.0224
   -     3       2.4339 /_  118.9    1.0134     4.160        3-1     4.2076 /_  148.3    1.0115
9R ..... 1       2.4212 /_   -1.5    1.0081     4.160
14 ..... 1       2.4171 /_   -1.5    1.0064     4.160
34 ..... 3       2.4315 /_  118.9    1.0124     4.160
18 ..... 1       2.3838 /_   -2.3   0.99252     4.160        1-2     4.1757 /_   28.8    1.0038
   -     2       2.4642 /_ -121.2     1.026     4.160        2-3     4.2251 /_  -91.5    1.0156
   -     3       2.4161 /_  118.8    1.0059     4.160        3-1     4.1807 /_  148.1     1.005
11 ..... 1       2.4155 /_   -1.5    1.0057     4.160
10 ..... 1       2.4163 /_   -1.5    1.0061     4.160
15 ..... 3       2.4306 /_  118.9     1.012     4.160
16 ..... 3       2.4283 /_  118.9     1.011     4.160
17 ..... 3       2.4295 /_  118.9    1.0115     4.160
19 ..... 1       2.3806 /_   -2.3    0.9912     4.160
21 ..... 1       2.3825 /_   -2.4   0.99197     4.160        1-2     4.1735 /_   28.8    1.0032
   -     2       2.4643 /_ -121.2    1.0261     4.160        2-3     4.2233 /_  -91.5    1.0152
   -     3       2.4132 /_  118.8    1.0048     4.160        3-1     4.1777 /_  148.0    1.0043
20 ..... 1       2.3786 /_   -2.3   0.99035     4.160
22 ..... 2       2.4609 /_ -121.2    1.0246     4.160
23 ..... 1       2.3815 /_   -2.4   0.99156     4.160        1-2      4.172 /_   28.8    1.0029
   -     2       2.4653 /_ -121.2    1.0264     4.160        2-3     4.2224 /_  -91.6     1.015
   -     3       2.4105 /_  118.8    1.0036     4.160        3-1     4.1752 /_  148.0    1.0037
24 ..... 3       2.4071 /_  118.8    1.0022     4.160
25 ..... 1       2.3799 /_   -2.5   0.99089     4.160        1-2     4.1701 /_   28.8    1.0024
   -     2       2.4664 /_ -121.2    1.0269     4.160        2-3     4.2217 /_  -91.6    1.0148
   -     3       2.4084 /_  118.8    1.0028     4.160        3-1     4.1732 /_  148.0    1.0032
25R .... 1       2.4097 /_   -2.5    1.0033     4.160
   -     3       2.4084 /_  118.8    1.0028     4.160        3-1     4.1991 /_  148.2    1.0094
26 ..... 1        2.409 /_   -2.5     1.003     4.160
   -     3       2.4072 /_  118.8    1.0023     4.160        3-1     4.1978 /_  148.2    1.0091
28 ..... 1        2.379 /_   -2.5   0.99053     4.160        1-2     4.1692 /_   28.8    1.0022
   -     2       2.4669 /_ -121.2    1.0271     4.160        2-3     4.2214 /_  -91.6    1.0148
   -     3       2.4076 /_  118.8    1.0024     4.160        3-1     4.1723 /_  148.0     1.003
27 ..... 1       2.4082 /_   -2.5    1.0027     4.160
   -     3       2.4071 /_  118.8    1.0022     4.160        3-1     4.1975 /_  148.2     1.009
31 ..... 3       2.4058 /_  118.8    1.0017     4.160
33 ..... 1        2.405 /_   -2.5    1.0013     4.160
29 ..... 1       2.3786 /_   -2.5   0.99036     4.160        1-2     4.1686 /_   28.8    1.0021
   -     2       2.4673 /_ -121.2    1.0273     4.160        2-3     4.2211 /_  -91.6    1.0147
   -     3       2.4065 /_  118.8     1.002     4.160        3-1     4.1713 /_  148.0    1.0027
30 ..... 1       2.3793 /_   -2.5   0.99063     4.160        1-2     4.1687 /_   28.8    1.0021
   -     2       2.4672 /_ -121.2    1.0272     4.160        2-3     4.2207 /_  -91.6    1.0146
   -     3       2.4054 /_  118.8    1.0015     4.160        3-1     4.1705 /_  148.0    1.0025
250 .... 1       2.3793 /_   -2.5   0.99063     4.160        1-2     4.1687 /_   28.8    1.0021
   -     2       2.4672 /_ -121.2    1.0272     4.160        2-3     4.2207 /_  -91.6    1.0146
   -     3       2.4054 /_  118.8    1.0015     4.160        3-1     4.1705 /_  148.0    1.0025
32 ..... 3       2.4049 /_  118.8    1.0013     4.160
35 ..... 1       2.3771 /_   -2.4   0.98974     4.160        1-2     4.1647 /_   28.7    1.0011
   -     2       2.4581 /_ -121.3    1.0234     4.160        2-3     4.2171 /_  -91.6    1.0137
   -     3       2.4135 /_  118.8    1.0049     4.160        3-1     4.1731 /_  148.0    1.0032
36 ..... 1       2.3749 /_   -2.4   0.98882     4.160        1-2     4.1624 /_   28.7    1.0006
   -     2        2.457 /_ -121.4     1.023     4.160
40 ..... 1       2.3735 /_   -2.4   0.98823     4.160        1-2     4.1594 /_   28.7   0.99985
   -     2       2.4553 /_ -121.4    1.0223     4.160        2-3     4.2125 /_  -91.6    1.0126
   -     3        2.411 /_  118.7    1.0038     4.160        3-1     4.1676 /_  147.9    1.0018
37 ..... 1        2.373 /_   -2.4   0.98804     4.160
38 ..... 2       2.4554 /_ -121.4    1.0223     4.160
39 ..... 2       2.4544 /_ -121.4    1.0219     4.160
41 ..... 3         2.41 /_  118.7    1.0034     4.160
42 ..... 1       2.3697 /_   -2.5   0.98663     4.160        1-2     4.1541 /_   28.6   0.99859
   -     2       2.4526 /_ -121.4    1.0212     4.160        2-3      4.208 /_  -91.7    1.0115
   -     3       2.4089 /_  118.7     1.003     4.160        3-1     4.1624 /_  147.9    1.0006
43 ..... 2       2.4494 /_ -121.4    1.0198     4.160
44 ..... 1       2.3671 /_   -2.5   0.98554     4.160        1-2     4.1503 /_   28.6   0.99768
   -     2       2.4509 /_ -121.4    1.0205     4.160        2-3     4.2049 /_  -91.7    1.0108
   -     3       2.4069 /_  118.7    1.0021     4.160        3-1     4.1583 /_  147.8    0.9996
45 ..... 1       2.3658 /_   -2.5   0.98501     4.160
47 ..... 1       2.3646 /_   -2.5    0.9845     4.160        1-2     4.1462 /_   28.6   0.99668
   -     2       2.4484 /_ -121.5    1.0194     4.160        2-3     4.2009 /_  -91.7    1.0098
   -     3       2.4045 /_  118.6    1.0011     4.160        3-1     4.1535 /_  147.8   0.99845
46 ..... 1       2.3648 /_   -2.5   0.98461     4.160
48 ..... 1       2.3639 /_   -2.5   0.98423     4.160        1-2      4.145 /_   28.6   0.99639
   -     2       2.4477 /_ -121.5    1.0191     4.160        2-3     4.1999 /_  -91.7    1.0096
   -     3        2.404 /_  118.6    1.0009     4.160        3-1     4.1525 /_  147.8   0.99819
49 ..... 1       2.3639 /_   -2.5   0.98423     4.160        1-2     4.1445 /_   28.6   0.99627
   -     2        2.447 /_ -121.5    1.0188     4.160        2-3     4.1995 /_  -91.7    1.0095
   -     3       2.4037 /_  118.6    1.0008     4.160        3-1      4.152 /_  147.8   0.99807
50 ..... 1       2.3638 /_   -2.5   0.98421     4.160        1-2     4.1441 /_   28.6   0.99617
   -     2       2.4471 /_ -121.5    1.0189     4.160        2-3     4.1992 /_  -91.7    1.0094
   -     3       2.4029 /_  118.6    1.0005     4.160        3-1     4.1512 /_  147.8   0.99788
51 ..... 1       2.3634 /_   -2.5   0.98404     4.160        1-2     4.1438 /_   28.6    0.9961
   -     2       2.4473 /_ -121.5     1.019     4.160        2-3     4.1993 /_  -91.7    1.0094
   -     3       2.4029 /_  118.6    1.0005     4.160        3-1     4.1511 /_  147.8   0.99785
151 .... 1       2.3634 /_   -2.5   0.98404     4.160        1-2     4.1438 /_   28.6    0.9961
   -     2       2.4473 /_ -121.5     1.019     4.160        2-3     4.1993 /_  -91.7    1.0094
   -     3       2.4029 /_  118.6    1.0005     4.160        3-1     4.1511 /_  147.8   0.99785
52 ..... 1        2.391 /_   -2.3   0.99552     4.160        1-2     4.1888 /_   28.8    1.0069
   -     2       2.4713 /_ -121.2     1.029     4.160        2-3     4.2438 /_  -91.6    1.0201
   -     3       2.4261 /_  118.7    1.0101     4.160        3-1     4.1911 /_  148.0    1.0075
53 ..... 1       2.3845 /_   -2.4   0.99279     4.160        1-2     4.1804 /_   28.7    1.0049
   -     2       2.4696 /_ -121.3    1.0282     4.160        2-3     4.2392 /_  -91.7     1.019
   -     3       2.4222 /_  118.5    1.0085     4.160        3-1     4.1831 /_  147.8    1.0056
54 ..... 1       2.3808 /_   -2.5   0.99126     4.160        1-2     4.1754 /_   28.6    1.0037
   -     2       2.4682 /_ -121.4    1.0277     4.160        2-3     4.2363 /_  -91.8    1.0183
   -     3       2.4199 /_  118.4    1.0075     4.160        3-1     4.1782 /_  147.7    1.0044
55 ..... 1       2.3803 /_   -2.6   0.99105     4.160        1-2      4.175 /_   28.6    1.0036
   -     2       2.4681 /_ -121.4    1.0276     4.160        2-3      4.236 /_  -91.8    1.0183
   -     3         2.42 /_  118.5    1.0076     4.160        3-1     4.1781 /_  147.7    1.0043
57 ..... 1       2.3732 /_   -2.9   0.98811     4.160        1-2     4.1611 /_   28.4    1.0003
   -     2       2.4616 /_ -121.6    1.0249     4.160        2-3     4.2253 /_  -92.0    1.0157
   -     3       2.4136 /_  118.2    1.0049     4.160        3-1     4.1681 /_  147.4     1.002
56 ..... 1       2.3802 /_   -2.5   0.99102     4.160        1-2     4.1749 /_   28.6    1.0036
   -     2       2.4677 /_ -121.4    1.0274     4.160        2-3     4.2357 /_  -91.8    1.0182
   -     3       2.4203 /_  118.4    1.0077     4.160        3-1      4.178 /_  147.7    1.0043
58 ..... 2       2.4601 /_ -121.6    1.0243     4.160
60 ..... 1       2.3575 /_   -3.5   0.98157     4.160        1-2     4.1312 /_   27.9   0.99308
   -     2       2.4499 /_ -122.0      1.02     4.160        2-3     4.2037 /_  -92.5    1.0105
   -     3        2.399 /_  117.8   0.99886     4.160        3-1     4.1465 /_  146.8   0.99676
59 ..... 2       2.4593 /_ -121.6     1.024     4.160
61 ..... 1       2.3575 /_   -3.5   0.98157     4.160        1-2     4.1312 /_   27.9   0.99308
   -     2       2.4499 /_ -122.0      1.02     4.160        2-3     4.2037 /_  -92.5    1.0105
   -     3        2.399 /_  117.8   0.99886     4.160        3-1     4.1465 /_  146.8   0.99676
62 ..... 1       2.3557 /_   -3.5    0.9808     4.160        1-2     4.1269 /_   27.9   0.99204
   -     2       2.4472 /_ -122.0    1.0189     4.160        2-3     4.1978 /_  -92.5    1.0091
   -     3       2.3941 /_  117.8    0.9968     4.160        3-1     4.1402 /_  146.9   0.99525
63 ..... 1       2.3542 /_   -3.5   0.98019     4.160        1-2     4.1238 /_   27.9   0.99131
   -     2       2.4451 /_ -122.0     1.018     4.160        2-3     4.1943 /_  -92.5    1.0083
   -     3       2.3917 /_  117.8    0.9958     4.160        3-1     4.1365 /_  146.9   0.99434
64 ..... 1       2.3534 /_   -3.5   0.97987     4.160        1-2      4.119 /_   27.9   0.99014
   -     2       2.4406 /_ -121.9    1.0162     4.160        2-3     4.1873 /_  -92.5    1.0066
   -     3       2.3865 /_  117.7   0.99363     4.160        3-1     4.1302 /_  146.9   0.99283
65 ..... 1       2.3518 /_   -3.5   0.97918     4.160        1-2     4.1158 /_   27.9   0.98936
   -     2       2.4398 /_ -121.9    1.0158     4.160        2-3     4.1814 /_  -92.5    1.0051
   -     3       2.3793 /_  117.7   0.99063     4.160        3-1     4.1225 /_  146.9   0.99099
66 ..... 1       2.3524 /_   -3.5   0.97942     4.160        1-2     4.1157 /_   27.9   0.98934
   -     2       2.4404 /_ -121.9    1.0161     4.160        2-3     4.1793 /_  -92.5    1.0046
   -     3       2.3756 /_  117.7   0.98911     4.160        3-1     4.1203 /_  146.9   0.99045
67 ..... 1       2.5004 /_   -3.8     1.041     4.160        1-2     4.3029 /_   27.1    1.0344
   -     2       2.5091 /_ -122.2    1.0447     4.160        2-3     4.3276 /_  -92.4    1.0403
   -     3       2.4838 /_  117.6    1.0341     4.160        3-1     4.3473 /_  147.0     1.045
68 ..... 1       2.4967 /_   -3.8    1.0395     4.160
72 ..... 1       2.5013 /_   -3.9    1.0415     4.160        1-2     4.3021 /_   27.0    1.0342
   -     2       2.5071 /_ -122.3    1.0438     4.160        2-3     4.3258 /_  -92.5    1.0398
   -     3       2.4833 /_  117.5    1.0339     4.160        3-1     4.3472 /_  146.9     1.045
97 ..... 1        2.498 /_   -3.8      1.04     4.160        1-2     4.2992 /_   27.0    1.0335
   -     2       2.5079 /_ -122.2    1.0442     4.160        2-3      4.325 /_  -92.5    1.0397
   -     3        2.482 /_  117.6    1.0334     4.160        3-1     4.3444 /_  147.0    1.0443
69 ..... 1       2.4925 /_   -3.9    1.0378     4.160
70 ..... 1       2.4895 /_   -3.9    1.0365     4.160
71 ..... 1       2.4879 /_   -3.9    1.0358     4.160
73 ..... 3       2.4781 /_  117.5    1.0318     4.160
76 ..... 1       2.5011 /_   -4.0    1.0414     4.160        1-2     4.3016 /_   26.9     1.034
   -     2       2.5059 /_ -122.4    1.0433     4.160        2-3      4.325 /_  -92.6    1.0397
   -     3       2.4847 /_  117.5    1.0345     4.160        3-1     4.3486 /_  146.9    1.0453
74 ..... 3       2.4737 /_  117.5    1.0299     4.160
75 ..... 3       2.4712 /_  117.4    1.0289     4.160
77 ..... 1       2.5039 /_   -4.0    1.0425     4.160        1-2     4.3068 /_   26.8    1.0353
   -     2       2.5088 /_ -122.5    1.0445     4.160        2-3     4.3293 /_  -92.7    1.0407
   -     3       2.4868 /_  117.4    1.0354     4.160        3-1     4.3526 /_  146.8    1.0463
86 ..... 1       2.4991 /_   -4.0    1.0405     4.160        1-2     4.2992 /_   26.8    1.0335
   -     2       2.5017 /_ -122.5    1.0416     4.160        2-3     4.3215 /_  -92.6    1.0388
   -     3       2.4881 /_  117.4    1.0359     4.160        3-1     4.3497 /_  146.8    1.0456
78 ..... 1       2.5047 /_   -4.0    1.0428     4.160        1-2     4.3082 /_   26.8    1.0356
   -     2       2.5098 /_ -122.5     1.045     4.160        2-3     4.3306 /_  -92.7     1.041
   -     3       2.4872 /_  117.4    1.0356     4.160        3-1     4.3536 /_  146.8    1.0465
79 ..... 1       2.5039 /_   -4.0    1.0425     4.160        1-2     4.3076 /_   26.8    1.0355
   -     2       2.5101 /_ -122.5    1.0451     4.160        2-3     4.3305 /_  -92.7     1.041
   -     3       2.4871 /_  117.4    1.0355     4.160        3-1     4.3534 /_  146.8    1.0465
80 ..... 1       2.5097 /_   -4.1    1.0449     4.160        1-2      4.316 /_   26.7    1.0375
   -     2       2.5139 /_ -122.5    1.0467     4.160        2-3      4.337 /_  -92.8    1.0425
   -     3       2.4893 /_  117.3    1.0364     4.160        3-1     4.3589 /_  146.7    1.0478
81 ..... 1       2.5116 /_   -4.1    1.0457     4.160        1-2     4.3191 /_   26.7    1.0382
   -     2        2.516 /_ -122.5    1.0475     4.160        2-3     4.3397 /_  -92.8    1.0432
   -     3       2.4898 /_  117.2    1.0366     4.160        3-1     4.3608 /_  146.7    1.0483
82 ..... 1       2.5137 /_   -4.2    1.0466     4.160        1-2     4.3234 /_   26.7    1.0393
   -     2        2.519 /_ -122.6    1.0488     4.160        2-3     4.3441 /_  -92.9    1.0442
   -     3       2.4916 /_  117.2    1.0374     4.160        3-1     4.3643 /_  146.7    1.0491
84 ..... 3       2.4836 /_  117.2    1.0341     4.160
83 ..... 1       2.5165 /_   -4.2    1.0478     4.160        1-2     4.3283 /_   26.6    1.0405
   -     2       2.5218 /_ -122.6      1.05     4.160        2-3     4.3484 /_  -92.9    1.0453
   -     3       2.4936 /_  117.2    1.0382     4.160        3-1     4.3681 /_  146.6      1.05
85 ..... 3       2.4807 /_  117.2    1.0328     4.160
87 ..... 1       2.4979 /_   -4.0      1.04     4.160        1-2      4.298 /_   26.7    1.0332
   -     2       2.4999 /_ -122.6    1.0408     4.160        2-3     4.3196 /_  -92.7    1.0384
   -     3       2.4894 /_  117.4    1.0365     4.160        3-1     4.3499 /_  146.8    1.0456
88 ..... 1       2.4978 /_   -4.0      1.04     4.160
89 ..... 1       2.4968 /_   -4.0    1.0396     4.160        1-2     4.2977 /_   26.7    1.0331
   -     2       2.4992 /_ -122.7    1.0406     4.160        2-3     4.3191 /_  -92.7    1.0383
   -     3       2.4904 /_  117.4    1.0369     4.160        3-1     4.3494 /_  146.8    1.0455
90 ..... 2        2.499 /_ -122.7    1.0405     4.160
91 ..... 1       2.4963 /_   -4.0    1.0394     4.160        1-2      4.297 /_   26.7    1.0329
   -     2       2.4985 /_ -122.7    1.0403     4.160        2-3     4.3189 /_  -92.7    1.0382
   -     3       2.4909 /_  117.4    1.0371     4.160        3-1     4.3491 /_  146.7    1.0455
92 ..... 3       2.4907 /_  117.3     1.037     4.160
93 ..... 1       2.4956 /_   -4.0    1.0391     4.160        1-2     4.2962 /_   26.7    1.0327
   -     2       2.4981 /_ -122.7    1.0401     4.160        2-3     4.3183 /_  -92.7    1.0381
   -     3       2.4911 /_  117.4    1.0372     4.160        3-1     4.3489 /_  146.7    1.0454
94 ..... 1       2.4939 /_   -4.0    1.0384     4.160
95 ..... 1       2.4955 /_   -4.0     1.039     4.160        1-2     4.2959 /_   26.7    1.0327
   -     2       2.4972 /_ -122.7    1.0397     4.160        2-3     4.3176 /_  -92.7    1.0379
   -     3       2.4916 /_  117.4    1.0374     4.160        3-1     4.3489 /_  146.7    1.0454
96 ..... 2       2.4966 /_ -122.7    1.0395     4.160
98 ..... 1       2.4975 /_   -3.9    1.0398     4.160        1-2     4.2982 /_   27.0    1.0332
   -     2       2.5073 /_ -122.2    1.0439     4.160        2-3     4.3241 /_  -92.5    1.0394
   -     3       2.4815 /_  117.6    1.0332     4.160        3-1     4.3435 /_  147.0    1.0441
99 ..... 1       2.4982 /_   -3.8    1.0401     4.160        1-2     4.2976 /_   27.0    1.0331
   -     2       2.5053 /_ -122.2    1.0431     4.160        2-3     4.3223 /_  -92.5     1.039
   -     3       2.4807 /_  117.6    1.0329     4.160        3-1     4.3423 /_  147.0    1.0438
100 .... 1       2.4987 /_   -3.8    1.0403     4.160        1-2     4.2975 /_   27.0     1.033
   -     2       2.5052 /_ -122.2    1.0431     4.160        2-3      4.322 /_  -92.5    1.0389
   -     3       2.4797 /_  117.6    1.0325     4.160        3-1     4.3416 /_  147.0    1.0436
450 .... 1       2.4987 /_   -3.8    1.0403     4.160        1-2     4.2975 /_   27.0     1.033
   -     2       2.5052 /_ -122.2    1.0431     4.160        2-3      4.322 /_  -92.5    1.0389
   -     3       2.4797 /_  117.6    1.0325     4.160        3-1     4.3416 /_  147.0    1.0436
197 .... 1        2.498 /_   -3.8      1.04     4.160        1-2     4.2992 /_   27.0    1.0335
   -     2       2.5079 /_ -122.2    1.0442     4.160        2-3      4.325 /_  -92.5    1.0397
   -     3        2.482 /_  117.6    1.0334     4.160        3-1     4.3443 /_  147.0    1.0443
101 .... 1        2.496 /_   -3.9    1.0392     4.160        1-2     4.2963 /_   27.0    1.0328
   -     2       2.5073 /_ -122.2    1.0439     4.160        2-3     4.3232 /_  -92.5    1.0392
   -     3       2.4807 /_  117.6    1.0329     4.160        3-1     4.3422 /_  147.0    1.0438
102 .... 3       2.4773 /_  117.6    1.0314     4.160
105 .... 1       2.4928 /_   -3.9    1.0379     4.160        1-2     4.2934 /_   27.0    1.0321
   -     2       2.5069 /_ -122.3    1.0438     4.160        2-3     4.3219 /_  -92.5    1.0389
   -     3       2.4814 /_  117.6    1.0331     4.160        3-1     4.3415 /_  146.9    1.0436
103 .... 3       2.4733 /_  117.6    1.0298     4.160
104 .... 3        2.469 /_  117.5     1.028     4.160
106 .... 2       2.5042 /_ -122.3    1.0426     4.160
108 .... 1       2.4893 /_   -4.0    1.0364     4.160        1-2     4.2904 /_   27.0    1.0313
   -     2       2.5085 /_ -122.3    1.0444     4.160        2-3     4.3217 /_  -92.5    1.0389
   -     3        2.481 /_  117.7     1.033     4.160        3-1     4.3404 /_  146.9    1.0434
107 .... 2       2.5007 /_ -122.3    1.0412     4.160
109 .... 1       2.4794 /_   -4.1    1.0323     4.160
300 .... 1       2.4893 /_   -4.0    1.0364     4.160        1-2     4.2904 /_   27.0    1.0313
   -     2       2.5085 /_ -122.3    1.0444     4.160        2-3     4.3217 /_  -92.5    1.0389
   -     3        2.481 /_  117.7     1.033     4.160        3-1     4.3404 /_  146.9    1.0434
110 .... 1       2.4747 /_   -4.1    1.0303     4.160
111 .... 1       2.4729 /_   -4.1    1.0296     4.160
112 .... 1       2.4731 /_   -4.1    1.0297     4.160
113 .... 1        2.468 /_   -4.2    1.0276     4.160
114 .... 1        2.467 /_   -4.2    1.0272     4.160
135 .... 1       2.3838 /_   -2.3   0.99252     4.160        1-2     4.1757 /_   28.8    1.0038
   -     2       2.4642 /_ -121.2     1.026     4.160        2-3     4.2251 /_  -91.5    1.0156
   -     3       2.4161 /_  118.8    1.0059     4.160        3-1     4.1807 /_  148.1     1.005
152 .... 1       2.4055 /_   -1.9    1.0015     4.160        1-2     4.2066 /_   29.0    1.0112
   -     2       2.4741 /_ -121.0    1.0301     4.160        2-3      4.253 /_  -91.3    1.0224
   -     3       2.4339 /_  118.9    1.0134     4.160        3-1     4.2076 /_  148.3    1.0115
160R ... 1       2.5049 /_   -3.5    1.0429     4.160        1-2     4.3102 /_   27.3    1.0361
   -     2       2.5111 /_ -122.0    1.0455     4.160        2-3     4.3347 /_  -92.3     1.042
   -     3        2.489 /_  117.8    1.0363     4.160        3-1     4.3534 /_  147.2    1.0465
150R ... 1       2.4918 /_    0.0    1.0375     4.160        1-2     4.3159 /_   30.0    1.0375
   -     2       2.4918 /_ -120.0    1.0375     4.160        2-3      4.316 /_  -90.0    1.0375
   -     3       2.4918 /_  120.0    1.0375     4.160        3-1     4.3159 /_  150.0    1.0375
160 .... 1       2.3575 /_   -3.5   0.98157     4.160        1-2     4.1312 /_   27.9   0.99308
   -     2       2.4499 /_ -122.0      1.02     4.160        2-3     4.2037 /_  -92.5    1.0105
   -     3        2.399 /_  117.8   0.99886     4.160        3-1     4.1465 /_  146.8   0.99676
61S .... 1       2.3575 /_   -3.5   0.98157     4.160        1-2     4.1312 /_   27.9   0.99308
   -     2       2.4499 /_ -122.0      1.02     4.160        2-3     4.2037 /_  -92.5    1.0105
   -     3        2.399 /_  117.8   0.99886     4.160        3-1     4.1465 /_  146.8   0.99676
300_OPEN 1       2.3634 /_   -2.5   0.98404     4.160        1-2     4.1438 /_   28.6    0.9961
   -     2       2.4473 /_ -121.5     1.019     4.160        2-3     4.1993 /_  -91.7    1.0094
   -     3       2.4029 /_  118.6    1.0005     4.160        3-1     4.1511 /_  147.8   0.99785
94_OPEN  1       2.3808 /_   -2.5   0.99126     4.160
610 .... 1      0.27427 /_   -2.7   0.98968     0.480        1-2    0.47668 /_   27.9   0.99308
   -     2       0.2781 /_ -122.0    1.0035     0.480        2-3    0.48504 /_  -92.5    1.0105
   -     3      0.27911 /_  117.0    1.0072     0.480        3-1    0.47844 /_  146.8   0.99676
